LTspice 24.0.12 for Windows
Circuit: .title KiCad schematic
Start Time: Thu Apr 24 21:29:03 2025
Fatal Error: Missing node(s) for uniform RC-line U7
